SOLVER= INC_NAVIER_STOKES                                                       
MATH_PROBLEM= DIRECT                                                            
KIND_TURB_MODEL= NONE                                                           
INC_DENSITY_INIT= 1.225                                                         
INC_VELOCITY_INIT= (0.1, 0.0, 0.0)                                              
INC_TEMPERATURE_INIT= 288.15                                                    
VISCOSITY_MODEL= CONSTANT_VISCOSITY                                             
MU_CONSTANT= 1.8e-5                                                             
SPECIFIC_HEAT_CP= 1004.703                                                      
PRANDTL_LAM= 0.72                                                               
MGLEVEL= 0                                                                      
CFL_NUMBER= 10.0                                                                
ITER= 100                                                                       
CONV_RESIDUAL_MINVAL= 1e-8                                                      
MESH_FILENAME= channel_mesh.su2                                                 
SOLUTION_FILENAME= solution_flow.dat                                            
INC_INLET_TYPE= VELOCITY_INLET                                                  
MARKER_INLET= ( inlet, 288.15, 0.1, 1.0, 0.0, 0.0 )                             
MARKER_OUTLET= ( outlet, 0.0 )                                                  
INC_OUTLET_TYPE= PRESSURE_OUTLET                                                
MARKER_HEATFLUX= ( walls, 0.0 )                                                 
OUTPUT_WRT_FREQ= 10                                                             
OUTPUT_FILES= ( RESTART, PARAVIEW )                                             
